Circuit: * D:\Anu\DC_DC converter.asc

Direct Newton iteration for .op point succeeded.
Heightened Def Con from 0.0014067 to 0.0014067
Heightened Def Con from 0.0015967 to 0.0015967
Heightened Def Con from 0.00164 to 0.00164
Heightened Def Con from 0.0016567 to 0.0016567
Heightened Def Con from 0.00172 to 0.00172
Heightened Def Con from 0.0017867 to 0.0017867
Heightened Def Con from 0.0018367 to 0.0018367
Heightened Def Con from 0.0018567 to 0.0018567
Heightened Def Con from 0.0018667 to 0.0018667
Heightened Def Con from 0.0019067 to 0.0019067
Heightened Def Con from 0.0020467 to 0.0020467
Heightened Def Con from 0.0020567 to 0.0020567
Heightened Def Con from 0.0020667 to 0.0020667
Heightened Def Con from 0.00213354 to 0.00213354
Heightened Def Con from 0.00213354 +to 0.00213354
Heightened Def Con from 0.00213354 to 0.00213354
Heightened Def Con from 0.00213354 to 0.00213354
Heightened Def Con from 0.00213354 to 0.00213354
Heightened Def Con from 0.00213354 to 0.00213354
Heightened Def Con from 0.00213354 to 0.00213354
Heightened Def Con from 0.00213354 to 0.00213354
Heightened Def Con from 0.00213354 to 0.00213354
Heightened Def Con from 0.0021567 to 0.0021567
Heightened Def Con from 0.00244 to 0.00244
Heightened Def Con from 0.0027767 to 0.0027767
Heightened Def Con from 0.0029001 to 0.0029001
Heightened Def Con from 0.0029201 to 0.0029201
Heightened Def Con from 0.00292674 to 0.00292674
Heightened Def Con from 0.00292674 to 0.00292674
Heightened Def Con from 0.00295674 to 0.00295674
Heightened Def Con from 0.0031467 to 0.0031467
Heightened Def Con from 0.0034167 to 0.0034167
Heightened Def Con from 0.0034567 to 0.0034567
Heightened Def Con from 0.0035667 to 0.0035667
Heightened Def Con from 0.0036167 to 0.0036167
Heightened Def Con from 0.00373004 to 0.00373005
Heightened Def Con from 0.0038401 to 0.0038401
Heightened Def Con from 0.0038667 to 0.0038667
Heightened Def Con from 0.0038867 to 0.0038867
Heightened Def Con from 0.0039067 to 0.0039067
Heightened Def Con from 0.0040267 to 0.0040267
Heightened Def Con from 0.0040867 to 0.0040867
Heightened Def Con from 0.0041967 to 0.0041967
Heightened Def Con from 0.0048167 to 0.0048167
Heightened Def Con from 0.00537 to 0.00537
Heightened Def Con from 0.0054367 to 0.0054367
Heightened Def Con from 0.0060967 to 0.0060967
Heightened Def Con from 0.0068867 to 0.0068867
Heightened Def Con from 0.0106367 to 0.0106367
Heightened Def Con from 0.01106 to 0.01106
Heightened Def Con from 0.0116167 to 0.0116167
Heightened Def Con from 0.0124567 to 0.0124567
Heightened Def Con from 0.0131967 to 0.0131967
Heightened Def Con from 0.0136067 to 0.0136067
Heightened Def Con from 0.0136267 to 0.0136267
Heightened Def Con from 0.0137267 to 0.0137267
Heightened Def Con from 0.0141167 to 0.0141167
Heightened Def Con from 0.0145067 to 0.0145067
Heightened Def Con from 0.0145767 to 0.0145767
Heightened Def Con from 0.0146467 to 0.0146467
Heightened Def Con from 0.0147667 to 0.0147667
Heightened Def Con from 0.0148367 to 0.0148367
Heightened Def Con from 0.0148867 to 0.0148867
Heightened Def Con from 0.0149767 to 0.0149767
Heightened Def Con from 0.0153867 to 0.0153867
Heightened Def Con from 0.0158167 to 0.0158167
Heightened Def Con from 0.0158767 to 0.0158767
Heightened Def Con from 0.0159667 to 0.0159667
Heightened Def Con from 0.0159867 to 0.0159867
Heightened Def Con from 0.0163867 to 0.0163867
Heightened Def Con from 0.0165767 to 0.0165767
Heightened Def Con from 0.01703 to 0.01703
Heightened Def Con from 0.0176767 to 0.0176767
Heightened Def Con from 0.0180767 to 0.0180767
Heightened Def Con from 0.0184367 to 0.0184367
Heightened Def Con from 0.0185167 to 0.0185167
Heightened Def Con from 0.0190167 to 0.0190167
Heightened Def Con from 0.0192867 to 0.0192867
Heightened Def Con from 0.0195267 to 0.0195267
Heightened Def Con from 0.0202867 to 0.0202867
Heightened Def Con from 0.0206067 to 0.0206067
Heightened Def Con from 0.0208867 to 0.0208867
Heightened Def Con from 0.0209767 to 0.0209767
Heightened Def Con from 0.0211167 to 0.0211167
Heightened Def Con from 0.0212467 to 0.0212467
Heightened Def Con from 0.0212967 to 0.0212967
Heightened Def Con from 0.02133 to 0.02133
Heightened Def Con from 0.0214267 to 0.0214267
Heightened Def Con from 0.0214867 to 0.0214867
Heightened Def Con from 0.0216567 to 0.0216567
Heightened Def Con from 0.0216767 to 0.0216767
Heightened Def Con from 0.0220067 to 0.0220067
Heightened Def Con from 0.0220567 to 0.0220567
Heightened Def Con from 0.0221167 to 0.0221167
Heightened Def Con from 0.0227767 to 0.0227767
Heightened Def Con from 0.0230067 to 0.0230067
Heightened Def Con from 0.0231867 to 0.0231867
Heightened Def Con from 0.0235667 to 0.0235667
Heightened Def Con from 0.0237967 to 0.0237967
Heightened Def Con from 0.0245867 to 0.0245867
Heightened Def Con from 0.0246167 to 0.0246167
Heightened Def Con from 0.0246567 to 0.0246567
Heightened Def Con from 0.0250367 to 0.0250367
Heightened Def Con from 0.0250667 to 0.0250667
Heightened Def Con from 0.0251367 to 0.0251367
Heightened Def Con from 0.0252867 to 0.0252867
Heightened Def Con from 0.0254467 to 0.0254467
Heightened Def Con from 0.0259767 to 0.0259767
Heightened Def Con from 0.0260967 to 0.0260967
Heightened Def Con from 0.0266067 to 0.0266067
Heightened Def Con from 0.0271967 to 0.0271967
Heightened Def Con from 0.0273167 to 0.0273167
Heightened Def Con from 0.0274467 to 0.0274467
Heightened Def Con from 0.0275367 to 0.0275367
Heightened Def Con from 0.0275767 to 0.0275767
Heightened Def Con from 0.0278167 to 0.0278167
Heightened Def Con from 0.0280667 to 0.0280667
Heightened Def Con from 0.0283767 to 0.0283767
Heightened Def Con from 0.0286367 to 0.0286367
Heightened Def Con from 0.0287467 to 0.0287467
Heightened Def Con from 0.0292867 to 0.0292867
Heightened Def Con from 0.0294367 to 0.0294367
Heightened Def Con from 0.0299267 to 0.0299267
Heightened Def Con from 0.0302867 to 0.0302867
Heightened Def Con from 0.0309167 to 0.0309167
Heightened Def Con from 0.0309967 to 0.0309967
Heightened Def Con from 0.0310467 to 0.0310467
Heightened Def Con from 0.0312667 to 0.0312667
Heightened Def Con from 0.0313267 to 0.0313267
Heightened Def Con from 0.0314067 to 0.0314067
Heightened Def Con from 0.0320967 to 0.0320967
Heightened Def Con from 0.0323367 to 0.0323367
Heightened Def Con from 0.0323667 to 0.0323667
Heightened Def Con from 0.0327867 to 0.0327867
Heightened Def Con from 0.0330035 to 0.0330035

Date: Thu Aug 24 21:42:15 2023
Total elapsed time: 15.142 seconds.

tnom = 27
temp = 27
method = modified trap
totiter = 5981903
traniter = 5981898
tranpoints = 1574565
accept = 1138196
rejected = 436505
matrix size = 28
fillins = 12
solver = Normal
Matrix Compiler1: 2.22 KB object code size  0.3/0.2/[0.1]
Matrix Compiler2: off  [0.1]/0.2/0.2

